<?xml version="1.0" encoding="UTF-8"?>

<!-- generated on 2024-09-07 01:04:58 by Eclipse SUMO netedit Version 1.20.0
-->

<routes xmlns:xsi="http://www.w3.org/2001/XMLSchema-instance" xsi:noNamespaceSchemaLocation="http://sumo.dlr.de/xsd/routes_file.xsd">
    <!-- Routes -->
    <route id="r_0" edges="E2 E3 E4 E5"/>
    <!-- Vehicles, persons and containers (sorted by depart) -->
    <trip id="t_1" depart="0.00" color="0,255,49" from="E2" to="E2"/>
</routes>
