<?xml version="1.0" encoding="UTF-8"?>

<!-- generated on 2024-09-07 16:14:56 by Eclipse SUMO sumo Version 1.20.0
-->

<configuration xmlns:xsi="http://www.w3.org/2001/XMLSchema-instance" xsi:noNamespaceSchemaLocation="http://sumo.dlr.de/xsd/sumoConfiguration.xsd">

    <input>
        <net-file value="../../Users/mandg/Downloads/map.net.xml"/>
        <route-files value="indore.rou.xml"/>
        <additional-files value="indore.add.xml"/>
    </input>

</configuration>
