<?xml version="1.0" encoding="UTF-8"?>

<!-- generated on 2024-09-07 15:51:46 by Eclipse SUMO netedit Version 1.20.0
-->

<additional xmlns:xsi="http://www.w3.org/2001/XMLSchema-instance" xsi:noNamespaceSchemaLocation="http://sumo.dlr.de/xsd/additional_file.xsd">
    <!-- Wires -->
    <tractionSubstation id="tr_0" pos="2239.36,2496.49" voltage="600.00" currentLimit="400.00"/>
    <tractionSubstation id="tr_1" pos="1973.94,2508.36" voltage="600.00" currentLimit="400.00"/>
    <tractionSubstation id="tr_2" pos="1819.61,2467.00" voltage="600.00" currentLimit="400.00"/>
</additional>
