<?xml version="1.0" encoding="UTF-8"?>

<!-- generated on 2024-09-07 15:53:21 by Eclipse SUMO netedit Version 1.20.0
<configuration xmlns:xsi="http://www.w3.org/2001/XMLSchema-instance" xsi:noNamespaceSchemaLocation="http://sumo.dlr.de/xsd/neteditConfiguration.xsd">

    <input>
        <sumocfg-file value="C:\mandge\SUMO_play\indore.sumocfg"/>
        <additional-files value="C:\mandge\SUMO_play\indore.add.xml"/>
        <route-files value="C:\mandge\SUMO_play\indore.rou.xml"/>
        <sumo-net-file value="C:\Users\mandg\Downloads\map.net.xml"/>
    </input>

    <output>
        <human-readable-time value="1"/>
        <output-file value="C:\Users\mandg\Downloads\map.net.xml"/>
    </output>

    <processing>
        <geometry.min-radius.fix.railways value="false"/>
        <geometry.max-grade.fix value="false"/>
        <offset.disable-normalization value="true"/>
        <lefthand value="0"/>
    </processing>

    <junctions>
        <no-turnarounds value="true"/>
        <junctions.corner-detail value="5"/>
        <junctions.limit-turn-speed value="5.50"/>
        <rectangular-lane-cut value="0"/>
    </junctions>

    <pedestrian>
        <walkingareas value="0"/>
    </pedestrian>

</configuration>
-->

<net version="1.20" junctionCornerDetail="5" limitTurnSpeed="5.50" xmlns:xsi="http://www.w3.org/2001/XMLSchema-instance" xsi:noNamespaceSchemaLocation="http://sumo.dlr.de/xsd/net_file.xsd">

    <location netOffset="-590361.41,-2514119.83" convBoundary="0.00,0.00,4301.54,4289.61" origBoundary="75.847205,22.719864,75.921967,22.790073" projParameter="+proj=utm +zone=43 +ellps=WGS84 +datum=WGS84 +units=m +no_defs"/>

    <type id="highway.bus_guideway" priority="1" numLanes="1" speed="27.78" allow="bus" oneway="1"/>
    <type id="highway.residential" priority="3" numLanes="1" speed="13.89" disallow="tram rail_urban rail rail_electric rail_fast ship container cable_car subway aircraft wheelchair scooter drone" oneway="0"/>
    <type id="highway.secondary" priority="11" numLanes="1" speed="27.78" disallow="tram rail_urban rail rail_electric rail_fast ship container cable_car subway aircraft wheelchair scooter drone" oneway="0"/>
    <type id="highway.secondary_link" priority="6" numLanes="1" speed="22.22" disallow="tram rail_urban rail rail_electric rail_fast ship container cable_car subway aircraft wheelchair scooter drone" oneway="0"/>
    <type id="highway.service" priority="1" numLanes="1" speed="5.56" allow="pedestrian delivery bicycle" oneway="0"/>
    <type id="highway.tertiary" priority="10" numLanes="1" speed="22.22" disallow="tram rail_urban rail rail_electric rail_fast ship container cable_car subway aircraft wheelchair scooter drone" oneway="0"/>
    <type id="highway.tertiary_link" priority="5" numLanes="1" speed="22.22" disallow="tram rail_urban rail rail_electric rail_fast ship container cable_car subway aircraft wheelchair scooter drone" oneway="0"/>
    <type id="highway.trunk" priority="13" numLanes="2" speed="27.78" disallow="pedestrian bicycle tram rail_urban rail rail_electric rail_fast ship container cable_car subway aircraft wheelchair scooter drone" oneway="0"/>
    <type id="highway.trunk_link" priority="8" numLanes="1" speed="22.22" disallow="pedestrian bicycle tram rail_urban rail rail_electric rail_fast ship container cable_car subway aircraft wheelchair scooter drone" oneway="0"/>
    <type id="highway.unclassified" priority="4" numLanes="1" speed="13.89" disallow="tram rail_urban rail rail_electric rail_fast ship container cable_car subway aircraft wheelchair scooter drone" oneway="0"/>

    <edge id=":10580846698_0" function="internal">
        <lane id=":10580846698_0_0" index="0" disallow="tram rail_urban rail rail_electric rail_fast ship container cable_car subway aircraft wheelchair scooter drone" speed="27.78" length="9.40" shape="1438.58,1635.17 1441.27,1644.18"/>
        <lane id=":10580846698_0_1" index="1" disallow="tram rail_urban rail rail_electric rail_fast ship container cable_car subway aircraft wheelchair scooter drone" speed="27.78" length="9.40" shape="1435.52,1636.08 1438.20,1645.09"/>
        <lane id=":10580846698_0_2" index="2" disallow="tram rail_urban rail rail_electric rail_fast ship container cable_car subway aircraft wheelchair scooter drone" speed="27.78" length="9.40" shape="1432.45,1637.00 1435.13,1646.01"/>
    </edge>
    <edge id=":10580846698_3" function="internal">
        <lane id=":10580846698_3_0" index="0" disallow="tram rail_urban rail rail_electric rail_fast ship container cable_car subway aircraft wheelchair scooter drone" speed="6.07" length="7.78" shape="1432.45,1637.00 1433.05,1639.70 1433.05,1641.75 1432.44,1643.16 1431.23,1643.92"/>
    </edge>
    <edge id=":10580846698_4" function="internal">
        <lane id=":10580846698_4_0" index="0" disallow="tram rail_urban rail rail_electric rail_fast ship container cable_car subway aircraft wheelchair scooter drone" speed="6.88" length="10.16" shape="1430.35,1640.84 1433.11,1640.45 1435.34,1641.03 1437.04,1642.58 1438.20,1645.09"/>
        <lane id=":10580846698_4_1" index="1" disallow="tram rail_urban rail rail_electric rail_fast ship container cable_car subway aircraft wheelchair scooter drone" speed="6.10" length="7.77" shape="1430.35,1640.84 1431.77,1640.84 1433.04,1641.70 1434.16,1643.43 1435.13,1646.01"/>
    </edge>
    <edge id=":10580846698_6" function="internal">
        <lane id=":10580846698_6_0" index="0" disallow="tram rail_urban rail rail_electric rail_fast ship container cable_car subway aircraft wheelchair scooter drone" speed="3.65" length="4.67" shape="1430.35,1640.84 1431.72,1641.28 1432.33,1641.94 1432.16,1642.82 1431.23,1643.92"/>
    </edge>
    <edge id=":10735208000_0" function="internal">
        <lane id=":10735208000_0_0" index="0" disallow="pedestrian bicycle tram rail_urban rail rail_electric rail_fast ship container cable_car subway aircraft wheelchair scooter drone" speed="22.22" length="9.66" shape="2377.77,1964.65 2380.51,1965.51 2382.36,1966.17 2384.16,1966.96 2386.74,1968.20"/>
    </edge>
    <edge id=":10735208000_1" function="internal">
        <lane id=":10735208000_1_0" index="0" disallow="pedestrian bicycle tram rail_urban rail rail_electric rail_fast ship container cable_car subway aircraft wheelchair scooter drone" speed="5.55" length="6.93" shape="2377.77,1964.65 2380.47,1965.60 2382.29,1966.49 2383.25,1967.33 2383.33,1968.10"/>
    </edge>
    <edge id=":10735208000_2" function="internal">
        <lane id=":10735208000_2_0" index="0" disallow="pedestrian bicycle tram rail_urban rail rail_electric rail_fast ship container cable_car subway aircraft wheelchair scooter drone" speed="5.70" length="6.76" shape="2380.44,1966.74 2381.06,1966.34 2382.32,1966.45 2384.21,1967.07 2386.74,1968.20"/>
    </edge>
    <edge id=":10735208000_3" function="internal">
        <lane id=":10735208000_3_0" index="0" disallow="tram rail_urban rail rail_electric rail_fast ship container cable_car subway aircraft wheelchair scooter drone" speed="3.65" length="4.67" shape="2380.44,1966.74 2381.67,1966.00 2382.56,1965.97 2383.12,1966.67 2383.33,1968.10"/>
    </edge>
    <edge id=":10735208001_0" function="internal">
        <lane id=":10735208001_0_0" index="0" disallow="tram rail_urban rail rail_electric rail_fast ship container cable_car subway aircraft wheelchair scooter drone" speed="27.78" length="15.41" shape="2341.39,1953.62 2356.52,1950.71"/>
        <lane id=":10735208001_0_1" index="1" disallow="tram rail_urban rail rail_electric rail_fast ship container cable_car subway aircraft wheelchair scooter drone" speed="27.78" length="15.41" shape="2341.99,1956.76 2357.13,1953.86"/>
    </edge>
    <edge id=":10735208001_2" function="internal">
        <lane id=":10735208001_2_0" index="0" disallow="pedestrian bicycle tram rail_urban rail rail_electric rail_fast ship container cable_car subway aircraft wheelchair scooter drone" speed="21.47" length="15.33" shape="2341.99,1956.76 2346.78,1956.29 2350.44,1956.74 2353.63,1957.70 2356.96,1958.75"/>
    </edge>
    <edge id=":10735211605_0" function="internal">
        <lane id=":10735211605_0_0" index="0" disallow="pedestrian bicycle tram rail_urban rail rail_electric rail_fast ship container cable_car subway aircraft wheelchair scooter drone" speed="27.78" length="8.20" shape="2405.12,1970.27 2406.09,1978.41"/>
        <lane id=":10735211605_0_1" index="1" disallow="pedestrian bicycle tram rail_urban rail rail_electric rail_fast ship container cable_car subway aircraft wheelchair scooter drone" speed="27.78" length="8.20" shape="2401.94,1970.65 2402.91,1978.79"/>
    </edge>
    <edge id=":10735211605_2" function="internal">
        <lane id=":10735211605_2_0" index="0" disallow="pedestrian bicycle tram rail_urban rail rail_electric rail_fast ship container cable_car subway aircraft wheelchair scooter drone" speed="7.73" length="7.54" shape="2397.93,1973.54 2399.97,1974.68 2401.48,1975.94 2402.46,1977.31 2402.91,1978.79"/>
    </edge>
    <edge id=":11073240628_0" function="internal">
        <lane id=":11073240628_0_0" index="0" disallow="tram rail_urban rail rail_electric rail_fast ship container cable_car subway aircraft wheelchair scooter drone" speed="22.22" length="0.25" shape="1927.91,2521.84 1927.73,2521.88"/>
        <lane id=":11073240628_0_1" index="1" disallow="tram rail_urban rail rail_electric rail_fast ship container cable_car subway aircraft wheelchair scooter drone" speed="22.22" length="0.25" shape="1927.24,2518.71 1926.92,2518.78"/>
    </edge>
    <edge id=":11103998186_0" function="internal">
        <lane id=":11103998186_0_0" index="0" disallow="tram rail_urban rail rail_electric rail_fast ship container cable_car subway aircraft wheelchair scooter drone" speed="5.20" length="5.08" shape="1506.69,1880.67 1507.35,1882.35 1508.09,1883.48 1508.91,1884.08 1509.82,1884.12"/>
        <lane id=":11103998186_0_1" index="1" disallow="tram rail_urban rail rail_electric rail_fast ship container cable_car subway aircraft wheelchair scooter drone" speed="6.31" length="7.95" shape="1506.69,1880.67 1507.75,1883.69 1508.76,1885.79 1509.69,1886.97 1510.56,1887.24"/>
    </edge>
    <edge id=":11103998186_2" function="internal">
        <lane id=":11103998186_2_0" index="0" disallow="tram rail_urban rail rail_electric rail_fast ship container cable_car subway aircraft wheelchair scooter drone" speed="27.78" length="12.52" shape="1506.69,1880.67 1510.19,1892.84"/>
        <lane id=":11103998186_2_1" index="1" disallow="tram rail_urban rail rail_electric rail_fast ship container cable_car subway aircraft wheelchair scooter drone" speed="27.78" length="12.52" shape="1503.64,1881.63 1507.09,1893.67"/>
        <lane id=":11103998186_2_2" index="2" disallow="tram rail_urban rail rail_electric rail_fast ship container cable_car subway aircraft wheelchair scooter drone" speed="27.78" length="12.52" shape="1500.58,1882.60 1504.00,1894.49"/>
    </edge>
    <edge id=":11103998187_0" function="internal">
        <lane id=":11103998187_0_0" index="0" allow="bus bicycle" speed="5.18" length="5.51" shape="1511.10,1879.09 1510.55,1877.26 1509.81,1876.05 1508.90,1875.44 1507.81,1875.44"/>
    </edge>
    <edge id=":11103998187_1" function="internal">
        <lane id=":11103998187_1_0" index="0" allow="bus bicycle" speed="27.78" length="13.19" shape="1511.10,1879.09 1507.86,1866.30"/>
    </edge>
    <edge id=":11103998187_2" function="internal">
        <lane id=":11103998187_2_0" index="0" allow="bus bicycle" speed="3.65" length="4.67" shape="1511.10,1879.09 1511.63,1877.74 1512.32,1877.18 1513.19,1877.40 1514.23,1878.41"/>
    </edge>
    <edge id=":11103998187_3" function="internal">
        <lane id=":11103998187_3_0" index="0" allow="bus bicycle" speed="5.24" length="5.34" shape="1515.07,1873.56 1514.34,1874.04 1513.96,1875.00 1513.92,1876.46 1514.23,1878.41"/>
    </edge>
    <edge id=":11103998187_4" function="internal">
        <lane id=":11103998187_4_0" index="0" disallow="tram rail_urban rail rail_electric rail_fast ship container cable_car subway aircraft wheelchair scooter drone" speed="22.22" length="7.50" shape="1515.07,1873.56 1507.81,1875.44"/>
        <lane id=":11103998187_4_1" index="1" disallow="tram rail_urban rail rail_electric rail_fast ship container cable_car subway aircraft wheelchair scooter drone" speed="22.22" length="7.50" shape="1514.27,1870.46 1507.01,1872.34"/>
    </edge>
    <edge id=":11103998187_6" function="internal">
        <lane id=":11103998187_6_0" index="0" allow="bus bicycle" speed="6.43" length="8.66" shape="1514.27,1870.46 1512.04,1870.67 1510.23,1870.05 1508.84,1868.59 1507.86,1866.30"/>
    </edge>
    <edge id=":11103998187_7" function="internal">
        <lane id=":11103998187_7_0" index="0" allow="bus bicycle" speed="27.78" length="13.38" shape="1510.94,1865.43 1514.23,1878.41"/>
    </edge>
    <edge id=":11103998187_8" function="internal">
        <lane id=":11103998187_8_0" index="0" allow="bus bicycle" speed="6.49" length="9.11" shape="1510.94,1865.43 1511.28,1867.92 1510.74,1869.90 1509.31,1871.38 1507.01,1872.34"/>
    </edge>
    <edge id=":11103998187_9" function="internal">
        <lane id=":11103998187_9_0" index="0" allow="bus bicycle" speed="3.65" length="4.67" shape="1510.94,1865.43 1510.50,1866.80 1509.84,1867.41 1508.96,1867.24 1507.86,1866.30"/>
    </edge>
    <edge id=":11690238688_0" function="internal">
        <lane id=":11690238688_0_0" index="0" disallow="tram rail_urban rail rail_electric rail_fast ship container cable_car subway aircraft wheelchair scooter drone" speed="27.78" length="9.92" shape="1417.07,1562.95 1419.90,1572.45"/>
        <lane id=":11690238688_0_1" index="1" disallow="tram rail_urban rail rail_electric rail_fast ship container cable_car subway aircraft wheelchair scooter drone" speed="27.78" length="9.92" shape="1414.00,1563.86 1416.83,1573.37"/>
        <lane id=":11690238688_0_2" index="2" disallow="tram rail_urban rail rail_electric rail_fast ship container cable_car subway aircraft wheelchair scooter drone" speed="27.78" length="9.92" shape="1410.93,1564.77 1413.76,1574.28"/>
    </edge>
    <edge id=":11690238688_3" function="internal">
        <lane id=":11690238688_3_0" index="0" allow="pedestrian delivery bicycle" speed="7.57" length="8.83" shape="1410.93,1564.77 1411.50,1567.46 1411.47,1569.72 1410.84,1571.57 1409.63,1573.00"/>
    </edge>
    <edge id=":11690238688_4" function="internal">
        <lane id=":11690238688_4_0" index="0" allow="pedestrian delivery bicycle" speed="6.67" length="12.39" shape="1407.62,1570.51 1410.72,1568.65 1413.29,1568.50 1415.33,1570.07 1416.83,1573.37"/>
        <lane id=":11690238688_4_1" index="1" allow="pedestrian delivery bicycle" speed="5.81" length="9.06" shape="1407.62,1570.51 1409.52,1569.52 1411.18,1569.82 1412.59,1571.40 1413.76,1574.28"/>
    </edge>
    <edge id=":11690238688_6" function="internal">
        <lane id=":11690238688_6_0" index="0" allow="pedestrian delivery bicycle" speed="3.65" length="4.67" shape="1407.62,1570.51 1409.05,1570.38 1409.87,1570.75 1410.06,1571.62 1409.63,1573.00"/>
    </edge>
    <edge id=":11690238691_0" function="internal">
        <lane id=":11690238691_0_0" index="0" disallow="tram rail_urban rail rail_electric rail_fast ship container cable_car subway aircraft wheelchair scooter drone" speed="27.78" length="9.71" shape="1428.79,1602.29 1431.56,1611.60"/>
        <lane id=":11690238691_0_1" index="1" disallow="tram rail_urban rail rail_electric rail_fast ship container cable_car subway aircraft wheelchair scooter drone" speed="27.78" length="9.71" shape="1425.72,1603.21 1428.50,1612.51"/>
        <lane id=":11690238691_0_2" index="2" disallow="tram rail_urban rail rail_electric rail_fast ship container cable_car subway aircraft wheelchair scooter drone" speed="27.78" length="9.71" shape="1422.66,1604.12 1425.43,1613.42"/>
    </edge>
    <edge id=":11690238691_3" function="internal">
        <lane id=":11690238691_3_0" index="0" allow="pedestrian delivery bicycle" speed="5.84" length="8.72" shape="1422.66,1604.12 1423.24,1607.06 1422.99,1609.16 1421.91,1610.40 1419.98,1610.79"/>
    </edge>
    <edge id=":11690238691_4" function="internal">
        <lane id=":11690238691_4_0" index="0" allow="pedestrian delivery bicycle" speed="7.87" length="10.52" shape="1420.03,1607.59 1423.20,1607.94 1425.66,1608.87 1427.43,1610.40 1428.50,1612.51"/>
        <lane id=":11690238691_4_1" index="1" allow="pedestrian delivery bicycle" speed="7.14" length="8.50" shape="1420.03,1607.59 1421.75,1607.98 1423.22,1609.08 1424.45,1610.89 1425.43,1613.42"/>
    </edge>
    <edge id=":11690238691_6" function="internal">
        <lane id=":11690238691_6_0" index="0" allow="pedestrian delivery bicycle" speed="3.65" length="4.67" shape="1420.03,1607.59 1421.22,1608.41 1421.61,1609.21 1421.19,1610.01 1419.98,1610.79"/>
    </edge>
    <edge id=":11743344252_0" function="internal">
        <lane id=":11743344252_0_0" index="0" disallow="tram rail_urban rail rail_electric rail_fast ship container cable_car subway aircraft wheelchair scooter drone" speed="6.61" length="9.17" shape="1351.14,2202.16 1350.17,2199.82 1348.71,2198.32 1346.75,2197.66 1344.29,2197.86"/>
    </edge>
    <edge id=":11743344252_1" function="internal">
        <lane id=":11743344252_1_0" index="0" disallow="tram rail_urban rail rail_electric rail_fast ship container cable_car subway aircraft wheelchair scooter drone" speed="7.95" length="14.30" shape="1351.14,2202.16 1350.71,2198.26 1351.64,2195.18 1353.94,2192.94 1357.61,2191.52"/>
    </edge>
    <edge id=":11743344252_2" function="internal">
        <lane id=":11743344252_2_0" index="0" disallow="tram rail_urban rail rail_electric rail_fast ship container cable_car subway aircraft wheelchair scooter drone" speed="3.65" length="4.67" shape="1351.14,2202.16 1351.61,2200.80 1352.29,2200.22 1353.16,2200.40 1354.24,2201.37"/>
    </edge>
    <edge id=":11743344252_3" function="internal">
        <lane id=":11743344252_3_0" index="0" disallow="tram rail_urban rail rail_electric rail_fast ship container cable_car subway aircraft wheelchair scooter drone" speed="6.45" length="9.03" shape="1358.33,2194.64 1356.01,2195.53 1354.55,2196.95 1353.96,2198.90 1354.24,2201.37"/>
    </edge>
    <edge id=":11743344252_4" function="internal">
        <lane id=":11743344252_4_0" index="0" disallow="tram rail_urban rail rail_electric rail_fast ship container cable_car subway aircraft wheelchair scooter drone" speed="22.22" length="14.40" shape="1358.33,2194.64 1344.29,2197.86"/>
    </edge>
    <edge id=":11743344252_5" function="internal">
        <lane id=":11743344252_5_0" index="0" disallow="tram rail_urban rail rail_electric rail_fast ship container cable_car subway aircraft wheelchair scooter drone" speed="3.65" length="1.44" shape="1358.33,2194.64 1356.98,2194.13"/>
    </edge>
    <edge id=":11743344252_9" function="internal">
        <lane id=":11743344252_9_0" index="0" disallow="tram rail_urban rail rail_electric rail_fast ship container cable_car subway aircraft wheelchair scooter drone" speed="3.65" length="3.23" shape="1356.98,2194.13 1356.41,2193.44 1356.62,2192.57 1357.61,2191.52"/>
    </edge>
    <edge id=":11743344252_6" function="internal">
        <lane id=":11743344252_6_0" index="0" disallow="tram rail_urban rail rail_electric rail_fast ship container cable_car subway aircraft wheelchair scooter drone" speed="22.22" length="14.40" shape="1343.58,2194.74 1357.61,2191.52"/>
    </edge>
    <edge id=":11743344252_7" function="internal">
        <lane id=":11743344252_7_0" index="0" disallow="tram rail_urban rail rail_electric rail_fast ship container cable_car subway aircraft wheelchair scooter drone" speed="8.09" length="4.02" shape="1343.58,2194.74 1347.41,2194.43 1347.58,2194.48"/>
    </edge>
    <edge id=":11743344252_8" function="internal">
        <lane id=":11743344252_8_0" index="0" disallow="tram rail_urban rail rail_electric rail_fast ship container cable_car subway aircraft wheelchair scooter drone" speed="3.65" length="1.44" shape="1343.58,2194.74 1344.92,2195.25"/>
    </edge>
    <edge id=":11743344252_10" function="internal">
        <lane id=":11743344252_10_0" index="0" disallow="tram rail_urban rail rail_electric rail_fast ship container cable_car subway aircraft wheelchair scooter drone" speed="8.09" length="10.21" shape="1347.58,2194.48 1350.47,2195.43 1352.74,2197.74 1354.24,2201.37"/>
    </edge>
    <edge id=":11743344252_11" function="internal">
        <lane id=":11743344252_11_0" index="0" disallow="tram rail_urban rail rail_electric rail_fast ship container cable_car subway aircraft wheelchair scooter drone" speed="3.65" length="3.23" shape="1344.92,2195.25 1345.49,2195.94 1345.28,2196.81 1344.29,2197.86"/>
    </edge>
    <edge id=":11747190505_0" function="internal">
        <lane id=":11747190505_0_0" index="0" disallow="tram rail_urban rail rail_electric rail_fast ship container cable_car subway aircraft wheelchair scooter drone" speed="3.65" length="4.67" shape="2862.20,4278.27 2862.12,4279.71 2861.63,4280.46 2860.74,4280.52 2859.44,4279.89"/>
    </edge>
    <edge id=":11747597626_0" function="internal">
        <lane id=":11747597626_0_0" index="0" disallow="tram rail_urban rail rail_electric rail_fast ship container cable_car subway aircraft wheelchair scooter drone" speed="27.78" length="9.30" shape="1335.00,1208.60 1332.47,1199.72"/>
        <lane id=":11747597626_0_1" index="1" disallow="tram rail_urban rail rail_electric rail_fast ship container cable_car subway aircraft wheelchair scooter drone" speed="27.78" length="9.30" shape="1338.09,1207.75 1335.53,1198.81"/>
        <lane id=":11747597626_0_2" index="2" disallow="tram rail_urban rail rail_electric rail_fast ship container cable_car subway aircraft wheelchair scooter drone" speed="27.78" length="9.30" shape="1341.18,1206.90 1338.60,1197.90"/>
    </edge>
    <edge id=":11747597626_3" function="internal">
        <lane id=":11747597626_3_0" index="0" disallow="tram rail_urban rail rail_electric rail_fast ship container cable_car subway aircraft wheelchair scooter drone" speed="5.84" length="7.02" shape="1341.18,1206.90 1340.56,1204.22 1340.39,1202.23 1340.66,1200.93 1341.37,1200.31"/>
    </edge>
    <edge id=":11747597626_4" function="internal">
        <lane id=":11747597626_4_0" index="0" disallow="tram rail_urban rail rail_electric rail_fast ship container cable_car subway aircraft wheelchair scooter drone" speed="6.59" length="9.23" shape="1342.25,1203.39 1339.98,1203.63 1338.10,1202.95 1336.62,1201.34 1335.53,1198.81"/>
        <lane id=":11747597626_4_1" index="1" disallow="tram rail_urban rail rail_electric rail_fast ship container cable_car subway aircraft wheelchair scooter drone" speed="5.84" length="7.02" shape="1342.25,1203.39 1341.33,1203.25 1340.41,1202.28 1339.50,1200.50 1338.60,1197.90"/>
    </edge>
    <edge id=":11747597626_6" function="internal">
        <lane id=":11747597626_6_0" index="0" disallow="tram rail_urban rail rail_electric rail_fast ship container cable_car subway aircraft wheelchair scooter drone" speed="3.65" length="4.67" shape="1342.25,1203.39 1340.88,1202.95 1340.27,1202.29 1340.44,1201.41 1341.37,1200.31"/>
    </edge>
    <edge id=":11747597628_0" function="internal">
        <lane id=":11747597628_0_0" index="0" disallow="tram rail_urban rail rail_electric rail_fast ship container cable_car subway aircraft wheelchair scooter drone" speed="27.78" length="8.84" shape="1512.66,1856.56 1510.39,1848.02"/>
        <lane id=":11747597628_0_1" index="1" disallow="tram rail_urban rail rail_electric rail_fast ship container cable_car subway aircraft wheelchair scooter drone" speed="27.78" length="8.84" shape="1515.75,1855.74 1513.48,1847.20"/>
        <lane id=":11747597628_0_2" index="2" disallow="tram rail_urban rail rail_electric rail_fast ship container cable_car subway aircraft wheelchair scooter drone" speed="27.78" length="8.84" shape="1518.84,1854.91 1516.57,1846.37"/>
    </edge>
    <edge id=":11747597628_3" function="internal">
        <lane id=":11747597628_3_0" index="0" disallow="tram rail_urban rail rail_electric rail_fast ship container cable_car subway aircraft wheelchair scooter drone" speed="12.54" length="8.83" shape="1518.84,1854.91 1518.45,1852.42 1518.75,1850.67 1519.51,1848.94 1520.49,1846.49"/>
    </edge>
    <edge id=":11747597633_0" function="internal">
        <lane id=":11747597633_0_0" index="0" allow="bus bicycle" speed="27.78" length="12.50" shape="1513.79,1891.50 1511.14,1879.28"/>
    </edge>
    <edge id=":11747597633_1" function="internal">
        <lane id=":11747597633_1_0" index="0" allow="bus bicycle" speed="6.33" length="8.35" shape="1513.79,1891.50 1513.67,1889.32 1514.32,1887.58 1515.76,1886.30 1517.99,1885.45"/>
    </edge>
    <edge id=":11747597633_2" function="internal">
        <lane id=":11747597633_2_0" index="0" allow="bus bicycle" speed="3.65" length="4.67" shape="1513.79,1891.50 1514.32,1890.15 1515.02,1889.59 1515.89,1889.82 1516.92,1890.82"/>
    </edge>
    <edge id=":11747597633_3" function="internal">
        <lane id=":11747597633_3_0" index="0" allow="bus bicycle" speed="5.12" length="5.28" shape="1514.27,1878.60 1514.80,1880.42 1515.47,1881.65 1516.28,1882.29 1517.23,1882.34"/>
    </edge>
    <edge id=":11747597633_4" function="internal">
        <lane id=":11747597633_4_0" index="0" allow="bus bicycle" speed="27.78" length="12.50" shape="1514.27,1878.60 1516.92,1890.82"/>
    </edge>
    <edge id=":11747597633_5" function="internal">
        <lane id=":11747597633_5_0" index="0" allow="bus bicycle" speed="3.65" length="4.67" shape="1514.27,1878.60 1513.74,1879.94 1513.05,1880.50 1512.18,1880.28 1511.14,1879.28"/>
    </edge>
    <edge id=":11747597633_6" function="internal">
        <lane id=":11747597633_6_0" index="0" allow="bus bicycle" speed="5.24" length="5.42" shape="1510.01,1884.08 1510.86,1883.59 1511.33,1882.63 1511.42,1881.20 1511.14,1879.28"/>
    </edge>
    <edge id=":11747597633_7" function="internal">
        <lane id=":11747597633_7_0" index="0" disallow="tram rail_urban rail rail_electric rail_fast ship container cable_car subway aircraft wheelchair scooter drone" speed="22.22" length="7.43" shape="1510.01,1884.08 1517.23,1882.34"/>
        <lane id=":11747597633_7_1" index="1" disallow="tram rail_urban rail rail_electric rail_fast ship container cable_car subway aircraft wheelchair scooter drone" speed="22.22" length="7.43" shape="1510.75,1887.19 1517.99,1885.45"/>
    </edge>
    <edge id=":11747597633_9" function="internal">
        <lane id=":11747597633_9_0" index="0" allow="bus bicycle" speed="6.19" length="8.20" shape="1510.75,1887.19 1513.06,1886.96 1514.86,1887.49 1516.14,1888.78 1516.92,1890.82"/>
    </edge>
    <edge id=":11747597635_0" function="internal">
        <lane id=":11747597635_0_0" index="0" disallow="tram rail_urban rail rail_electric rail_fast ship container cable_car subway aircraft wheelchair scooter drone" speed="22.22" length="0.10" shape="1333.70,1153.80 1333.70,1153.80"/>
    </edge>
    <edge id=":11747597640_0" function="internal">
        <lane id=":11747597640_0_0" index="0" disallow="tram rail_urban rail rail_electric rail_fast ship container cable_car subway aircraft wheelchair scooter drone" speed="27.78" length="9.16" shape="1318.95,1152.87 1316.46,1144.06"/>
        <lane id=":11747597640_0_1" index="1" disallow="tram rail_urban rail rail_electric rail_fast ship container cable_car subway aircraft wheelchair scooter drone" speed="27.78" length="9.16" shape="1322.03,1152.00 1319.53,1143.19"/>
        <lane id=":11747597640_0_2" index="2" disallow="tram rail_urban rail rail_electric rail_fast ship container cable_car subway aircraft wheelchair scooter drone" speed="27.78" length="9.16" shape="1325.11,1151.13 1322.61,1142.32"/>
    </edge>
    <edge id=":11747597640_3" function="internal">
        <lane id=":11747597640_3_0" index="0" disallow="tram rail_urban rail rail_electric rail_fast ship container cable_car subway aircraft wheelchair scooter drone" speed="14.61" length="10.20" shape="1328.46,1149.11 1325.71,1147.49 1323.16,1146.82 1321.02,1145.81 1319.53,1143.19"/>
        <lane id=":11747597640_3_1" index="1" disallow="tram rail_urban rail rail_electric rail_fast ship container cable_car subway aircraft wheelchair scooter drone" speed="13.26" length="10.20" shape="1328.46,1149.11 1326.32,1147.38 1324.75,1146.20 1323.58,1144.77 1322.61,1142.32"/>
    </edge>
    <edge id=":11747816397_0" function="internal">
        <lane id=":11747816397_0_0" index="0" disallow="pedestrian bicycle tram rail_urban rail rail_electric rail_fast ship container cable_car subway aircraft wheelchair scooter drone" speed="27.78" length="8.68" shape="2427.02,2099.22 2426.00,2090.61"/>
        <lane id=":11747816397_0_1" index="1" disallow="pedestrian bicycle tram rail_urban rail rail_electric rail_fast ship container cable_car subway aircraft wheelchair scooter drone" speed="27.78" length="8.68" shape="2430.20,2098.84 2429.17,2090.23"/>
    </edge>
    <edge id=":11747816397_2" function="internal">
        <lane id=":11747816397_2_0" index="0" disallow="pedestrian bicycle tram rail_urban rail rail_electric rail_fast ship container cable_car subway aircraft wheelchair scooter drone" speed="7.26" length="7.76" shape="2430.20,2098.84 2430.29,2097.11 2430.96,2095.50 2432.24,2094.01 2434.11,2092.64"/>
    </edge>
    <edge id=":11747816398_0" function="internal">