<?xml version="1.0" encoding="UTF-8"?>

<!-- generated on 2024-09-09 14:08:53 by Eclipse SUMO netedit Version 1.20.0
<configuration xmlns:xsi="http://www.w3.org/2001/XMLSchema-instance" xsi:noNamespaceSchemaLocation="http://sumo.dlr.de/xsd/neteditConfiguration.xsd">

    <input>
        <sumocfg-file value="trial.sumocfg"/>
        <additional-files value=""/>
        <route-files value="trial.rou.xml"/>
        <sumo-net-file value="trial.net.xml"/>
    </input>

    <output>
        <output-file value="trial.net.xml"/>
    </output>

    <processing>
        <geometry.min-radius.fix.railways value="false"/>
        <geometry.max-grade.fix value="false"/>
        <offset.disable-normalization value="true"/>
        <lefthand value="0"/>
    </processing>

    <junctions>
        <no-turnarounds value="true"/>
        <junctions.corner-detail value="5"/>
        <junctions.limit-turn-speed value="5.50"/>
        <rectangular-lane-cut value="0"/>
    </junctions>

    <pedestrian>
        <walkingareas value="0"/>
    </pedestrian>

    <netedit>
        <ignore.routeelements value="false"/>
    </netedit>

</configuration>
-->

<net version="1.20" junctionCornerDetail="5" limitTurnSpeed="5.50" xmlns:xsi="http://www.w3.org/2001/XMLSchema-instance" xsi:noNamespaceSchemaLocation="http://sumo.dlr.de/xsd/net_file.xsd">

    <location netOffset="0.00,0.00" convBoundary="-120.64,-187.32,279.34,-52.67" origBoundary="-10000000000.00,-10000000000.00,10000000000.00,10000000000.00" projParameter="!"/>

    <edge id=":J0_0" function="internal">
        <lane id=":J0_0_0" index="0" speed="8.96" length="18.30" shape="272.75,-117.21 277.74,-116.57 281.29,-114.49 283.42,-110.96 284.12,-105.98"/>
        <lane id=":J0_0_1" index="1" speed="7.65" length="13.07" shape="272.80,-114.01 276.36,-113.55 278.90,-112.07 280.42,-109.55 280.92,-105.99"/>
    </edge>
    <edge id=":J0_2" function="internal">
        <lane id=":J0_2_0" index="0" speed="3.90" length="2.61" shape="274.52,-106.01 274.42,-106.72 274.12,-107.22 273.61,-107.52 272.90,-107.61"/>
        <lane id=":J0_2_1" index="1" speed="6.07" length="7.84" shape="277.72,-106.00 277.42,-108.13 276.51,-109.64 274.99,-110.54 272.85,-110.81"/>
    </edge>
    <edge id=":J2_0" function="internal">
        <lane id=":J2_0_0" index="0" speed="8.39" length="15.57" shape="284.07,-83.63 283.28,-80.93 280.90,-78.98 276.95,-77.78 271.42,-77.34"/>
        <lane id=":J2_0_1" index="1" speed="7.04" length="10.64" shape="280.87,-83.64 280.28,-82.32 278.50,-81.36 275.53,-80.77 271.39,-80.54"/>
    </edge>
    <edge id=":J33_0" function="internal">
        <lane id=":J33_0_0" index="0" speed="6.64" length="9.32" shape="-14.29,-106.71 -16.81,-106.37 -18.62,-105.29 -19.74,-103.50 -20.16,-100.98"/>
    </edge>
    <edge id=":J33_1" function="internal">
        <lane id=":J33_1_0" index="0" speed="13.89" length="20.95" shape="-14.29,-106.71 -35.25,-106.87"/>
        <lane id=":J33_1_1" index="1" speed="13.89" length="20.95" shape="-14.27,-109.91 -35.21,-110.07"/>
    </edge>
    <edge id=":J33_3" function="internal">
        <lane id=":J33_3_0" index="0" speed="9.24" length="5.12" shape="-14.27,-109.91 -19.33,-110.66"/>
    </edge>
    <edge id=":J33_16" function="internal">
        <lane id=":J33_16_0" index="0" speed="9.24" length="14.30" shape="-19.33,-110.66 -19.54,-110.69 -23.28,-112.97 -25.50,-116.75 -26.19,-122.03"/>
    </edge>
    <edge id=":J33_4" function="internal">
        <lane id=":J33_4_0" index="0" speed="6.49" length="9.03" shape="-19.79,-121.95 -19.47,-119.49 -18.44,-117.74 -16.70,-116.68 -14.24,-116.31"/>
    </edge>
    <edge id=":J33_5" function="internal">
        <lane id=":J33_5_0" index="0" speed="13.89" length="20.96" shape="-19.79,-121.95 -20.16,-100.98"/>
        <lane id=":J33_5_1" index="1" speed="13.89" length="20.96" shape="-22.99,-121.99 -23.36,-101.05"/>
    </edge>
    <edge id=":J33_7" function="internal">
        <lane id=":J33_7_0" index="0" speed="9.29" length="5.15" shape="-22.99,-121.99 -23.78,-116.90"/>
    </edge>
    <edge id=":J33_17" function="internal">
        <lane id=":J33_17_0" index="0" speed="9.29" length="14.31" shape="-23.78,-116.90 -23.81,-116.73 -26.12,-112.99 -29.92,-110.77 -35.21,-110.07"/>
    </edge>
    <edge id=":J33_8" function="internal">
        <lane id=":J33_8_0" index="0" speed="6.55" length="9.16" shape="-35.15,-116.47 -32.65,-116.80 -30.86,-117.84 -29.77,-119.60 -29.39,-122.08"/>
    </edge>
    <edge id=":J33_9" function="internal">
        <lane id=":J33_9_0" index="0" speed="13.89" length="20.91" shape="-35.15,-116.47 -14.24,-116.31"/>
        <lane id=":J33_9_1" index="1" speed="13.89" length="20.91" shape="-35.18,-113.27 -14.26,-113.11"/>
    </edge>
    <edge id=":J33_11" function="internal">
        <lane id=":J33_11_0" index="0" speed="9.24" length="4.90" shape="-35.18,-113.27 -30.33,-112.52"/>
    </edge>
    <edge id=":J33_18" function="internal">
        <lane id=":J33_18_0" index="0" speed="9.24" length="14.54" shape="-30.33,-112.52 -29.90,-112.46 -26.18,-110.15 -23.99,-106.35 -23.36,-101.05"/>
    </edge>
    <edge id=":J33_12" function="internal">
        <lane id=":J33_12_0" index="0" speed="6.48" length="9.03" shape="-29.75,-101.19 -30.05,-103.66 -31.06,-105.42 -32.80,-106.49 -35.25,-106.87"/>
    </edge>
    <edge id=":J33_13" function="internal">
        <lane id=":J33_13_0" index="0" speed="13.89" length="20.90" shape="-29.75,-101.19 -29.39,-122.08"/>
        <lane id=":J33_13_1" index="1" speed="13.89" length="20.90" shape="-26.56,-101.12 -26.19,-122.03"/>
    </edge>
    <edge id=":J33_15" function="internal">
        <lane id=":J33_15_0" index="0" speed="9.36" length="4.87" shape="-26.56,-101.12 -25.76,-105.93"/>
    </edge>
    <edge id=":J33_19" function="internal">
        <lane id=":J33_19_0" index="0" speed="9.36" length="14.64" shape="-25.76,-105.93 -25.69,-106.39 -23.35,-110.14 -19.54,-112.38 -14.26,-113.11"/>
    </edge>
    <edge id=":J34_0" function="internal">
        <lane id=":J34_0_0" index="0" speed="6.52" length="9.06" shape="69.10,-106.31 66.65,-105.98 64.89,-104.94 63.82,-103.19 63.45,-100.72"/>
    </edge>
    <edge id=":J34_1" function="internal">
        <lane id=":J34_1_0" index="0" speed="13.89" length="20.81" shape="69.10,-106.31 48.30,-106.45"/>
        <lane id=":J34_1_1" index="1" speed="13.89" length="20.81" shape="69.13,-109.51 48.31,-109.65"/>
    </edge>
    <edge id=":J34_3" function="internal">
        <lane id=":J34_3_0" index="0" speed="9.30" length="4.94" shape="69.13,-109.51 64.25,-110.25"/>
    </edge>
    <edge id=":J34_16" function="internal">
        <lane id=":J34_16_0" index="0" speed="9.30" length="14.45" shape="64.25,-110.25 63.89,-110.31 60.14,-112.59 57.90,-116.37 57.15,-121.63"/>
    </edge>
    <edge id=":J34_4" function="internal">
        <lane id=":J34_4_0" index="0" speed="6.56" length="9.13" shape="63.55,-121.63 63.90,-119.15 64.96,-117.37 66.72,-116.29 69.18,-115.91"/>
    </edge>
    <edge id=":J34_5" function="internal">
        <lane id=":J34_5_0" index="0" speed="13.89" length="20.89" shape="63.55,-121.63 63.45,-100.72"/>
        <lane id=":J34_5_1" index="1" speed="13.89" length="20.89" shape="60.35,-121.63 60.25,-100.75"/>
    </edge>
    <edge id=":J34_7" function="internal">
        <lane id=":J34_7_0" index="0" speed="9.25" length="5.14" shape="60.35,-121.63 59.62,-116.54"/>
    </edge>
    <edge id=":J34_17" function="internal">
        <lane id=":J34_17_0" index="0" speed="9.25" length="14.25" shape="59.62,-116.54 59.60,-116.37 57.34,-112.61 53.58,-110.37 48.31,-109.65"/>
    </edge>
    <edge id=":J34_8" function="internal">
        <lane id=":J34_8_0" index="0" speed="6.50" length="9.04" shape="48.34,-116.04 50.79,-116.38 52.55,-117.43 53.60,-119.18 53.95,-121.63"/>
    </edge>
    <edge id=":J34_9" function="internal">
        <lane id=":J34_9_0" index="0" speed="13.89" length="20.84" shape="48.34,-116.04 69.18,-115.91"/>
        <lane id=":J34_9_1" index="1" speed="13.89" length="20.84" shape="48.32,-112.84 69.16,-112.71"/>
    </edge>
    <edge id=":J34_11" function="internal">
        <lane id=":J34_11_0" index="0" speed="9.25" length="5.08" shape="48.32,-112.84 53.35,-112.10"/>
    </edge>
    <edge id=":J34_18" function="internal">
        <lane id=":J34_18_0" index="0" speed="9.25" length="14.31" shape="53.35,-112.10 53.59,-112.07 57.33,-109.80 59.55,-106.02 60.25,-100.75"/>
    </edge>
    <edge id=":J34_12" function="internal">
        <lane id=":J34_12_0" index="0" speed="6.50" length="9.03" shape="53.85,-100.81 53.52,-103.27 52.49,-105.02 50.75,-106.08 48.30,-106.45"/>
    </edge>
    <edge id=":J34_13" function="internal">
        <lane id=":J34_13_0" index="0" speed="13.89" length="20.83" shape="53.85,-100.81 53.95,-121.63"/>
        <lane id=":J34_13_1" index="1" speed="13.89" length="20.83" shape="57.05,-100.78 57.15,-121.63"/>
    </edge>
    <edge id=":J34_15" function="internal">
        <lane id=":J34_15_0" index="0" speed="9.27" length="4.87" shape="57.05,-100.78 57.78,-105.60"/>
    </edge>
    <edge id=":J34_19" function="internal">
        <lane id=":J34_19_0" index="0" speed="9.27" length="14.50" shape="57.78,-105.60 57.85,-106.04 60.13,-109.78 63.90,-112.01 69.16,-112.71"/>
    </edge>
    <edge id=":J35_0" function="internal">
        <lane id=":J35_0_0" index="0" speed="6.62" length="9.24" shape="143.43,-100.02 143.04,-102.51 141.94,-104.29 140.14,-105.37 137.64,-105.75"/>
    </edge>
    <edge id=":J35_1" function="internal">
        <lane id=":J35_1_0" index="0" speed="13.89" length="20.96" shape="143.43,-100.02 143.35,-121.02"/>
        <lane id=":J35_1_1" index="1" speed="13.89" length="20.96" shape="146.63,-100.06 146.55,-121.00"/>
    </edge>
    <edge id=":J35_3" function="internal">
        <lane id=":J35_3_0" index="0" speed="9.29" length="5.15" shape="146.63,-100.06 147.30,-105.17"/>
    </edge>
    <edge id=":J35_16" function="internal">
        <lane id=":J35_16_0" index="0" speed="9.29" length="14.30" shape="147.30,-105.17 147.32,-105.31 149.55,-109.09 153.31,-111.39 158.61,-112.22"/>
    </edge>
    <edge id=":J35_4" function="internal">
        <lane id=":J35_4_0" index="0" speed="6.56" length="9.16" shape="158.71,-105.83 156.20,-105.44 154.41,-104.36 153.36,-102.59 153.03,-100.14"/>
    </edge>
    <edge id=":J35_5" function="internal">
        <lane id=":J35_5_0" index="0" speed="13.89" length="21.03" shape="158.71,-105.83 137.64,-105.75"/>
        <lane id=":J35_5_1" index="1" speed="13.89" length="21.03" shape="158.66,-109.02 137.66,-108.95"/>
    </edge>
    <edge id=":J35_7" function="internal">
        <lane id=":J35_7_0" index="0" speed="9.23" length="5.24" shape="158.66,-109.02 153.45,-109.69"/>
    </edge>
    <edge id=":J35_17" function="internal">
        <lane id=":J35_17_0" index="0" speed="9.23" length="14.26" shape="153.45,-109.69 153.34,-109.70 149.55,-111.92 147.29,-115.69 146.55,-121.00"/>
    </edge>
    <edge id=":J35_8" function="internal">
        <lane id=":J35_8_0" index="0" speed="6.46" length="9.03" shape="152.95,-120.97 153.29,-118.51 154.34,-116.77 156.09,-115.74 158.56,-115.42"/>
    </edge>
    <edge id=":J35_9" function="internal">
        <lane id=":J35_9_0" index="0" speed="13.89" length="20.85" shape="152.95,-120.97 153.03,-100.14"/>
        <lane id=":J35_9_1" index="1" speed="13.89" length="20.85" shape="149.75,-120.98 149.83,-100.10"/>
    </edge>
    <edge id=":J35_11" function="internal">
        <lane id=":J35_11_0" index="0" speed="9.27" length="4.78" shape="149.75,-120.98 149.06,-116.26"/>
    </edge>
    <edge id=":J35_18" function="internal">
        <lane id=":J35_18_0" index="0" speed="9.27" length="14.69" shape="149.06,-116.26 148.97,-115.68 146.70,-111.91 142.93,-109.66 137.66,-108.95"/>
    </edge>
    <edge id=":J35_12" function="internal">
        <lane id=":J35_12_0" index="0" speed="6.53" length="9.12" shape="137.72,-115.35 140.17,-115.68 141.93,-116.74 142.99,-118.52 143.35,-121.02"/>
    </edge>
    <edge id=":J35_13" function="internal">
        <lane id=":J35_13_0" index="0" speed="13.89" length="20.88" shape="137.72,-115.35 158.56,-115.42"/>
        <lane id=":J35_13_1" index="1" speed="13.89" length="20.88" shape="137.69,-112.15 158.61,-112.22"/>
    </edge>
    <edge id=":J35_15" function="internal">
        <lane id=":J35_15_0" index="0" speed="9.34" length="4.66" shape="137.69,-112.15 142.30,-111.45"/>
    </edge>
    <edge id=":J35_19" function="internal">
        <lane id=":J35_19_0" index="0" speed="9.34" length="14.75" shape="142.30,-111.45 142.95,-111.36 146.72,-109.09 149.01,-105.33 149.83,-100.10"/>
    </edge>
    <edge id=":J36_0" function="internal">
        <lane id=":J36_0_0" index="0" speed="6.50" length="9.03" shape="53.95,-174.89 53.60,-177.34 52.55,-179.09 50.80,-180.13 48.34,-180.48"/>
    </edge>
    <edge id=":J36_1" function="internal">
        <lane id=":J36_1_0" index="0" speed="9.33" length="19.32" shape="57.15,-174.89 57.89,-180.15 60.10,-183.94 63.80,-186.27 68.97,-187.14"/>
    </edge>
    <edge id=":J36_2" function="internal">
        <lane id=":J36_2_0" index="0" speed="6.60" length="9.16" shape="69.11,-180.74 66.68,-180.33 64.94,-179.22 63.90,-177.40 63.55,-174.89"/>
    </edge>
    <edge id=":J36_3" function="internal">
        <lane id=":J36_3_0" index="0" speed="13.89" length="20.74" shape="69.11,-180.74 48.34,-180.48"/>
        <lane id=":J36_3_1" index="1" speed="13.89" length="20.74" shape="69.04,-183.94 48.33,-183.68"/>
    </edge>
    <edge id=":J36_5" function="internal">
        <lane id=":J36_5_0" index="0" speed="13.89" length="20.62" shape="48.31,-190.08 68.90,-190.34"/>
        <lane id=":J36_5_1" index="1" speed="13.89" length="20.62" shape="48.32,-186.88 68.97,-187.14"/>
    </edge>
    <edge id=":J36_7" function="internal">
        <lane id=":J36_7_0" index="0" speed="9.25" length="4.71" shape="48.32,-186.88 52.98,-186.23"/>
    </edge>
    <edge id=":J36_8" function="internal">
        <lane id=":J36_8_0" index="0" speed="9.25" length="14.67" shape="52.98,-186.23 53.59,-186.14 57.34,-183.90 59.60,-180.15 60.35,-174.89"/>
    </edge>
    <edge id=":J37_0" function="internal">
        <lane id=":J37_0_0" index="0" speed="13.89" length="21.00" shape="68.67,-47.88 47.64,-48.08"/>
        <lane id=":J37_0_1" index="1" speed="13.89" length="21.00" shape="68.67,-51.08 47.71,-51.28"/>
    </edge>
    <edge id=":J37_2" function="internal">
        <lane id=":J37_2_0" index="0" speed="9.24" length="5.21" shape="68.67,-51.08 63.51,-51.81"/>
    </edge>
    <edge id=":J37_8" function="internal">
        <lane id=":J37_8_0" index="0" speed="9.24" length="14.22" shape="63.51,-51.81 63.39,-51.83 59.63,-54.09 57.40,-57.87 56.70,-63.15"/>
    </edge>
    <edge id=":J37_3" function="internal">
        <lane id=":J37_3_0" index="0" speed="6.48" length="9.03" shape="63.10,-63.09 63.43,-60.63 64.46,-58.88 66.21,-57.83 68.66,-57.48"/>
    </edge>
    <edge id=":J37_4" function="internal">
        <lane id=":J37_4_0" index="0" speed="9.24" length="19.43" shape="59.90,-63.12 59.09,-57.85 56.79,-54.12 53.00,-51.93 47.71,-51.28"/>
    </edge>
    <edge id=":J37_5" function="internal">
        <lane id=":J37_5_0" index="0" speed="6.49" length="9.03" shape="47.83,-57.67 50.29,-57.98 52.06,-59.00 53.12,-60.73 53.50,-63.18"/>
    </edge>
    <edge id=":J37_6" function="internal">
        <lane id=":J37_6_0" index="0" speed="13.89" length="20.87" shape="47.83,-57.67 68.66,-57.48"/>
        <lane id=":J37_6_1" index="1" speed="13.89" length="20.87" shape="47.77,-54.47 68.67,-54.28"/>
    </edge>
    <edge id=":J38_0" function="internal">
        <lane id=":J38_0_0" index="0" speed="8.96" length="18.10" shape="-19.69,-49.40 -24.58,-50.19 -28.05,-52.37 -30.07,-55.92 -30.66,-60.85"/>
        <lane id=":J38_0_1" index="1" speed="7.66" length="12.93" shape="-19.62,-52.59 -23.12,-53.16 -25.60,-54.72 -27.04,-57.25 -27.46,-60.77"/>
    </edge>
    <edge id=":J38_2" function="internal">
        <lane id=":J38_2_0" index="0" speed="3.90" length="2.59" shape="-21.07,-60.63 -20.98,-59.93 -20.69,-59.42 -20.20,-59.11 -19.50,-58.99"/>
        <lane id=":J38_2_1" index="1" speed="6.08" length="7.76" shape="-24.27,-60.70 -24.01,-58.59 -23.14,-57.07 -21.66,-56.14 -19.56,-55.79"/>
    </edge>
    <edge id=":J39_0" function="internal">
        <lane id=":J39_0_0" index="0" speed="3.91" length="2.55" shape="-17.47,-180.27 -18.16,-180.17 -18.65,-179.87 -18.95,-179.38 -19.06,-178.69"/>
        <lane id=":J39_0_1" index="1" speed="6.08" length="7.65" shape="-17.48,-183.47 -19.55,-183.17 -21.03,-182.28 -21.94,-180.80 -22.26,-178.73"/>
    </edge>
    <edge id=":J39_2" function="internal">
        <lane id=":J39_2_0" index="0" speed="8.96" length="17.86" shape="-28.66,-178.81 -27.91,-183.64 -25.80,-187.09 -22.33,-189.17 -17.50,-189.87"/>
        <lane id=":J39_2_1" index="1" speed="7.66" length="12.75" shape="-25.46,-178.77 -24.92,-182.22 -23.42,-184.68 -20.94,-186.17 -17.49,-186.67"/>
    </edge>
    <edge id=":J40_0" function="internal">
        <lane id=":J40_0_0" index="0" speed="8.96" length="18.42" shape="141.79,-191.97 146.82,-191.36 150.40,-189.29 152.54,-185.74 153.24,-180.72"/>
        <lane id=":J40_0_1" index="1" speed="7.65" length="13.16" shape="141.86,-188.77 145.45,-188.34 148.01,-186.86 149.54,-184.32 150.04,-180.74"/>
    </edge>
    <edge id=":J40_2" function="internal">
        <lane id=":J40_2_0" index="0" speed="3.90" length="2.63" shape="143.64,-180.77 143.54,-181.48 143.23,-181.99 142.72,-182.29 142.00,-182.37"/>
        <lane id=":J40_2_1" index="1" speed="6.07" length="7.89" shape="146.84,-180.75 146.54,-182.90 145.62,-184.42 144.09,-185.31 141.93,-185.57"/>
    </edge>
    <edge id=":J41_0" function="internal">
        <lane id=":J41_0_0" index="0" speed="8.96" length="18.21" shape="153.52,-59.29 152.87,-54.33 150.79,-50.79 147.28,-48.67 142.33,-47.95"/>
        <lane id=":J41_0_1" index="1" speed="7.65" length="13.01" shape="150.32,-59.25 149.86,-55.71 148.37,-53.18 145.86,-51.66 142.33,-51.15"/>
    </edge>
    <edge id=":J41_2" function="internal">
        <lane id=":J41_2_0" index="0" speed="3.90" length="2.60" shape="142.32,-57.55 143.03,-57.66 143.53,-57.96 143.83,-58.47 143.92,-59.17"/>
        <lane id=":J41_2_1" index="1" speed="6.08" length="7.80" shape="142.33,-54.35 144.45,-54.66 145.95,-55.57 146.84,-57.09 147.12,-59.21"/>
    </edge>
    <edge id=":J5_0" function="internal">
        <lane id=":J5_0_0" index="0" speed="3.65" length="4.67" shape="187.21,-107.75 188.02,-108.94 188.82,-109.34 189.62,-108.94 190.41,-107.73"/>
    </edge>
    <edge id=":J6_0" function="internal">
        <lane id=":J6_0_0" index="0" speed="3.65" length="4.67" shape="240.54,-78.98 239.74,-77.78 238.94,-77.38 238.14,-77.78 237.34,-78.98"/>
    </edge>

    <edge id="-E0" from="J0" to="J35" priority="-1">
        <lane id="-E0_0" index="0" speed="13.89" length="114.21" shape="272.90,-107.61 158.71,-105.83"/>
        <lane id="-E0_1" index="1" speed="13.89" length="114.21" shape="272.85,-110.81 158.66,-109.02"/>
    </edge>
    <edge id="-E1" from="J2" to="J0" priority="-1">
        <lane id="-E1_0" index="0" speed="13.89" length="22.36" shape="274.47,-83.65 274.52,-106.01"/>
        <lane id="-E1_1" index="1" speed="13.89" length="22.36" shape="277.67,-83.64 277.72,-106.00"/>
    </edge>
    <edge id="-E29" from="J34" to="J33" priority="-1">
        <lane id="-E29_0" index="0" speed="13.89" length="62.58" shape="48.30,-106.45 -14.29,-106.71"/>
        <lane id="-E29_1" index="1" speed="13.89" length="62.58" shape="48.31,-109.65 -14.27,-109.91"/>
    </edge>
    <edge id="-E3" from="J5" to="J4" priority="-1">
        <lane id="-E3_0" index="0" speed="13.89" length="30.73" shape="193.61,-107.71 193.44,-76.98"/>
        <lane id="-E3_1" index="1" speed="13.89" length="30.73" shape="190.41,-107.73 190.24,-77.00"/>
    </edge>
    <edge id="-E30" from="J35" to="J34" priority="-1">
        <lane id="-E30_0" index="0" speed="13.89" length="68.54" shape="137.64,-105.75 69.10,-106.31"/>
        <lane id="-E30_1" index="1" speed="13.89" length="68.54" shape="137.66,-108.95 69.13,-109.51"/>
    </edge>
    <edge id="-E31" from="J36" to="J34" priority="-1">
        <lane id="-E31_0" index="0" speed="13.89" length="53.26" shape="63.55,-174.89 63.55,-121.63"/>
        <lane id="-E31_1" index="1" speed="13.89" length="53.26" shape="60.35,-174.89 60.35,-121.63"/>
    </edge>
    <edge id="-E32" from="J37" to="J34" priority="-1">
        <lane id="-E32_0" index="0" speed="13.89" length="37.63" shape="53.50,-63.18 53.85,-100.81"/>
        <lane id="-E32_1" index="1" speed="13.89" length="37.63" shape="56.70,-63.15 57.05,-100.78"/>
    </edge>
    <edge id="-E33" from="J38" to="J33" priority="-1">
        <lane id="-E33_0" index="0" speed="13.89" length="40.36" shape="-30.66,-60.85 -29.75,-101.19"/>
        <lane id="-E33_1" index="1" speed="13.89" length="40.36" shape="-27.46,-60.77 -26.56,-101.12"/>
    </edge>
    <edge id="-E34" from="J37" to="J38" priority="-1">
        <lane id="-E34_0" index="0" speed="13.89" length="67.34" shape="47.64,-48.08 -19.69,-49.40"/>
        <lane id="-E34_1" index="1" speed="13.89" length="67.34" shape="47.71,-51.28 -19.62,-52.59"/>
    </edge>
    <edge id="-E35" from="J39" to="J33" priority="-1">
        <lane id="-E35_0" index="0" speed="13.89" length="56.74" shape="-19.06,-178.69 -19.79,-121.95"/>
        <lane id="-E35_1" index="1" speed="13.89" length="56.74" shape="-22.26,-178.73 -22.99,-121.99"/>
    </edge>
    <edge id="-E36" from="J36" to="J39" priority="-1">
        <lane id="-E36_0" index="0" speed="13.89" length="65.81" shape="48.34,-180.48 -17.47,-180.27"/>
        <lane id="-E36_1" index="1" speed="13.89" length="65.81" shape="48.33,-183.68 -17.48,-183.47"/>
    </edge>
    <edge id="-E37" from="J40" to="J36" priority="-1">
        <lane id="-E37_0" index="0" speed="13.89" length="72.91" shape="142.00,-182.37 69.11,-180.74"/>
        <lane id="-E37_1" index="1" speed="13.89" length="72.91" shape="141.93,-185.57 69.04,-183.94"/>
    </edge>
    <edge id="-E38" from="J35" to="J40" priority="-1">
        <lane id="-E38_0" index="0" speed="13.89" length="59.75" shape="143.35,-121.02 143.64,-180.77"/>
        <lane id="-E38_1" index="1" speed="13.89" length="59.75" shape="146.55,-121.00 146.84,-180.75"/>
    </edge>
    <edge id="-E39" from="J41" to="J35" priority="-1">
        <lane id="-E39_0" index="0" speed="13.89" length="40.85" shape="143.92,-59.17 143.43,-100.02"/>
        <lane id="-E39_1" index="1" speed="13.89" length="40.85" shape="147.12,-59.21 146.63,-100.06"/>
    </edge>
    <edge id="-E4" from="J7" to="J6" priority="-1">
        <lane id="-E4_0" index="0" speed="13.89" length="29.09" shape="243.74,-108.07 243.74,-78.98"/>
        <lane id="-E4_1" index="1" speed="13.89" length="29.09" shape="240.54,-108.07 240.54,-78.98"/>
    </edge>
    <edge id="-E40" from="J37" to="J41" priority="-1">
        <lane id="-E40_0" index="0" speed="13.89" length="73.66" shape="68.66,-57.48 142.32,-57.55"/>
        <lane id="-E40_1" index="1" speed="13.89" length="73.66" shape="68.67,-54.28 142.33,-54.35"/>
    </edge>
    <edge id="-E41" from="J42" to="J33" priority="-1">
        <lane id="-E41_0" index="0" speed="13.89" length="85.45" shape="-120.59,-117.37 -35.15,-116.47"/>
        <lane id="-E41_1" index="1" speed="13.89" length="85.45" shape="-120.62,-114.17 -35.18,-113.27"/>
    </edge>
    <edge id="E0" from="J35" to="J0" priority="-1">
        <lane id="E0_0" index="0" speed="13.89" length="114.21" shape="158.56,-115.42 272.75,-117.21"/>
        <lane id="E0_1" index="1" speed="13.89" length="114.21" shape="158.61,-112.22 272.80,-114.01"/>
    </edge>
    <edge id="E1" from="J0" to="J2" priority="-1">
        <lane id="E1_0" index="0" speed="13.89" length="22.36" shape="284.12,-105.98 284.07,-83.63"/>
        <lane id="E1_1" index="1" speed="13.89" length="22.36" shape="280.92,-105.99 280.87,-83.64"/>
    </edge>
    <edge id="E2" from="J2" to="J3" priority="-1">
        <lane id="E2_0" index="0" speed="13.89" length="119.69" shape="271.42,-77.34 151.74,-76.10"/>
        <lane id="E2_1" index="1" speed="13.89" length="119.69" shape="271.39,-80.54 151.71,-79.30"/>
    </edge>
    <edge id="E29" from="J33" to="J34" priority="-1">
        <lane id="E29_0" index="0" speed="13.89" length="62.58" shape="-14.24,-116.31 48.34,-116.04"/>
        <lane id="E29_1" index="1" speed="13.89" length="62.58" shape="-14.26,-113.11 48.32,-112.84"/>
    </edge>
    <edge id="E3" from="J4" to="J5" priority="-1">
        <lane id="E3_0" index="0" speed="13.89" length="30.73" shape="183.84,-77.04 184.01,-107.77"/>
        <lane id="E3_1" index="1" speed="13.89" length="30.73" shape="187.04,-77.02 187.21,-107.75"/>
    </edge>
    <edge id="E30" from="J34" to="J35" priority="-1">
        <lane id="E30_0" index="0" speed="13.89" length="68.54" shape="69.18,-115.91 137.72,-115.35"/>
        <lane id="E30_1" index="1" speed="13.89" length="68.54" shape="69.16,-112.71 137.69,-112.15"/>
    </edge>
    <edge id="E31" from="J34" to="J36" priority="-1">
        <lane id="E31_0" index="0" speed="13.89" length="53.26" shape="53.95,-121.63 53.95,-174.89"/>
        <lane id="E31_1" index="1" speed="13.89" length="53.26" shape="57.15,-121.63 57.15,-174.89"/>
    </edge>
    <edge id="E32" from="J34" to="J37" priority="-1">
        <lane id="E32_0" index="0" speed="13.89" length="37.63" shape="63.45,-100.72 63.10,-63.09"/>
        <lane id="E32_1" index="1" speed="13.89" length="37.63" shape="60.25,-100.75 59.90,-63.12"/>
    </edge>
    <edge id="E33" from="J33" to="J38" priority="-1">
        <lane id="E33_0" index="0" speed="13.89" length="40.36" shape="-20.16,-100.98 -21.07,-60.63"/>
        <lane id="E33_1" index="1" speed="13.89" length="40.36" shape="-23.36,-101.05 -24.27,-60.70"/>
    </edge>
    <edge id="E34" from="J38" to="J37" priority="-1">
        <lane id="E34_0" index="0" speed="13.89" length="67.34" shape="-19.50,-58.99 47.83,-57.67"/>
        <lane id="E34_1" index="1" speed="13.89" length="67.34" shape="-19.56,-55.79 47.77,-54.47"/>
    </edge>
    <edge id="E35" from="J33" to="J39" priority="-1">
        <lane id="E35_0" index="0" speed="13.89" length="56.74" shape="-29.39,-122.08 -28.66,-178.81"/>
        <lane id="E35_1" index="1" speed="13.89" length="56.74" shape="-26.19,-122.03 -25.46,-178.77"/>
    </edge>
    <edge id="E36" from="J39" to="J36" priority="-1">
        <lane id="E36_0" index="0" speed="13.89" length="65.81" shape="-17.50,-189.87 48.31,-190.08"/>
        <lane id="E36_1" index="1" speed="13.89" length="65.81" shape="-17.49,-186.67 48.32,-186.88"/>
    </edge>
    <edge id="E37" from="J36" to="J40" priority="-1">
        <lane id="E37_0" index="0" speed="13.89" length="72.91" shape="68.90,-190.34 141.79,-191.97"/>
        <lane id="E37_1" index="1" speed="13.89" length="72.91" shape="68.97,-187.14 141.86,-188.77"/>
    </edge>
    <edge id="E38" from="J40" to="J35" priority="-1">
        <lane id="E38_0" index="0" speed="13.89" length="59.75" shape="153.24,-180.72 152.95,-120.97"/>
        <lane id="E38_1" index="1" speed="13.89" length="59.75" shape="150.04,-180.74 149.75,-120.98"/>
    </edge>
    <edge id="E39" from="J35" to="J41" priority="-1">
        <lane id="E39_0" index="0" speed="13.89" length="40.85" shape="153.03,-100.14 153.52,-59.29"/>
        <lane id="E39_1" index="1" speed="13.89" length="40.85" shape="149.83,-100.10 150.32,-59.25"/>
    </edge>
    <edge id="E4" from="J6" to="J7" priority="-1">
        <lane id="E4_0" index="0" speed="13.89" length="29.09" shape="234.14,-78.98 234.14,-108.07"/>
        <lane id="E4_1" index="1" speed="13.89" length="29.09" shape="237.34,-78.98 237.34,-108.07"/>
    </edge>
    <edge id="E40" from="J41" to="J37" priority="-1">
        <lane id="E40_0" index="0" speed="13.89" length="73.66" shape="142.33,-47.95 68.67,-47.88"/>
        <lane id="E40_1" index="1" speed="13.89" length="73.66" shape="142.33,-51.15 68.67,-51.08"/>
    </edge>
    <edge id="E41" from="J33" to="J42" priority="-1">
        <lane id="E41_0" index="0" speed="13.89" length="85.45" shape="-35.25,-106.87 -120.69,-107.77"/>
        <lane id="E41_1" index="1" speed="13.89" length="85.45" shape="-35.21,-110.07 -120.66,-110.97"/>
    </edge>

    <tlLogic id="J33" type="static" programID="0" offset="0">
        <phase duration="30" state="GGGgrrrrGGGgrrrr"/>
        <phase duration="5"  state="yyyyrrrryyyyrrrr"/>
        <phase duration="30" state="rrrrGGGgrrrrGGGg"/>
        <phase duration="5"  state="rrrryyyyrrrryyyy"/>
    </tlLogic>
    <tlLogic id="J34" type="static" programID="0" offset="0">
        <phase duration="30" state="GGGgrrrrGGGgrrrr"/>
        <phase duration="5"  state="yyyyrrrryyyyrrrr"/>
        <phase duration="30" state="rrrrGGGgrrrrGGGg"/>
        <phase duration="5"  state="rrrryyyyrrrryyyy"/>
    </tlLogic>
    <tlLogic id="J35" type="static" programID="0" offset="0">
        <phase duration="30" state="GGGgrrrrGGGgrrrr"/>
        <phase duration="5"  state="yyyyrrrryyyyrrrr"/>
        <phase duration="30" state="rrrrGGGgrrrrGGGg"/>
        <phase duration="5"  state="rrrryyyyrrrryyyy"/>
    </tlLogic>
    <tlLogic id="J36" type="static" programID="0" offset="0">
        <phase duration="30" state="rrGGGGGg"/>
        <phase duration="5"  state="rrGyyyyy"/>
        <phase duration="30" state="GGGrrrrr"/>
        <phase duration="5"  state="yyGrrrrr"/>
    </tlLogic>