<?xml version="1.0" encoding="UTF-8"?>

<!-- generated on 2024-09-07 22:46:38 by Eclipse SUMO netedit Version 1.20.0
-->

<routes xmlns:xsi="http://www.w3.org/2001/XMLSchema-instance" xsi:noNamespaceSchemaLocation="http://sumo.dlr.de/xsd/routes_file.xsd">
    <!-- Routes -->
    <route id="r_0" edges="-E41 E29 E30 E39 E40 -E32 -E29 E41"/>
    <route id="r_1" edges="-E41 E29 E30 E0 E1"/>
    <!-- Vehicles, persons and containers (sorted by depart) -->
    <vehicle id="v_0" type="DEFAULT_TAXITYPE" depart="0.00" route="r_0"/>
    <vehicle id="v_1" type="DEFAULT_BIKETYPE" depart="0.00" route="r_0"/>
    <vehicle id="v_2" type="DEFAULT_BIKETYPE" depart="0.00" route="r_0"/>
    <vehicle id="v_3" type="DEFAULT_CONTAINERTYPE" depart="0.00" route="r_0"/>
    <vehicle id="v_4" type="DEFAULT_CONTAINERTYPE" depart="0.00" route="r_1"/>
    <vehicle id="v_5" type="DEFAULT_CONTAINERTYPE" depart="0.00" route="r_1"/>
    <vehicle id="v_6" type="DEFAULT_CONTAINERTYPE" depart="0.00" route="r_1"/>
    <vehicle id="v_7" type="DEFAULT_CONTAINERTYPE" depart="0.00" route="r_1"/>
    <vehicle id="v_8" type="DEFAULT_CONTAINERTYPE" depart="0.00" route="r_1"/>
    <vehicle id="v_9" type="DEFAULT_CONTAINERTYPE" depart="0.00" color="255,0,250" route="r_0"/>
</routes>
