<?xml version="1.0" encoding="UTF-8"?>

<!-- generated on 2024-09-09 14:08:53 by Eclipse SUMO netedit Version 1.20.0
-->

<routes xmlns:xsi="http://www.w3.org/2001/XMLSchema-instance" xsi:noNamespaceSchemaLocation="http://sumo.dlr.de/xsd/routes_file.xsd">
    <!-- Routes -->
    <route id="r_0" edges="-E41 E29 E31 -E36 -E35 E41"/>
    <route id="r_1" edges="-E41 E29 E30 E0 E1 E2" color="cyan"/>
    <!-- Vehicles, persons and containers (sorted by depart) -->
    <vehicle id="v_0" depart="0.00" route="r_0"/>
    <vehicle id="v_1" depart="0.00" route="r_0"/>
    <vehicle id="v_10" depart="0.00" route="r_1"/>
    <vehicle id="v_2" depart="0.00" route="r_0"/>
    <vehicle id="v_3" depart="0.00" route="r_0"/>
    <vehicle id="v_4" depart="0.00" route="r_0"/>
    <vehicle id="v_5" depart="0.00" route="r_0"/>
    <vehicle id="v_6" depart="0.00" route="r_1"/>
    <vehicle id="v_7" depart="0.00" route="r_1"/>
    <vehicle id="v_8" depart="0.00" route="r_1"/>
    <vehicle id="v_9" depart="0.00" route="r_1"/>
</routes>
