<?xml version="1.0" encoding="UTF-8"?>

<!-- generated on 2024-09-07 16:38:19 by Eclipse SUMO sumo Version 1.20.0
-->

<configuration xmlns:xsi="http://www.w3.org/2001/XMLSchema-instance" xsi:noNamespaceSchemaLocation="http://sumo.dlr.de/xsd/sumoConfiguration.xsd">

    <input>
        <net-file value="trial.net.xml"/>
        <route-files value="trial.rou.xml"/>
    </input>

</configuration>
