<?xml version="1.0" encoding="UTF-8"?>

<!-- generated on 2024-09-07 16:38:16 by Eclipse SUMO netedit Version 1.20.0
-->

<routes xmlns:xsi="http://www.w3.org/2001/XMLSchema-instance" xsi:noNamespaceSchemaLocation="http://sumo.dlr.de/xsd/routes_file.xsd">
    <!-- Routes -->
    <route id="r_0" edges="-E41 E29 E30 -E38 -E37 -E31 E32 -E34 -E33 E41"/>
    <route id="r_2" edges="-E41 E29 E32 -E40 -E39 -E30 E31 -E36 -E35 E41"/>
    <!-- Vehicles, persons and containers (sorted by depart) -->
    <vehicle id="v_0" depart="0.00" route="r_0"/>
    <vehicle id="v_1" type="DEFAULT_BIKETYPE" depart="0.00" route="r_0"/>
    <vehicle id="v_2" type="DEFAULT_BIKETYPE" depart="0.00" route="r_2"/>
    <vehicle id="v_3" depart="0.00" route="r_2"/>
    <vehicle id="v_4" depart="0.00" route="r_2"/>
</routes>
